* modflow control
MODNAMFILE E:\Projects\DelawareSGD\work\homogenous\homogenous.nam
MODFLOWCOM E:\Program Files\WRDAPP\swt_v4_00_05\exe\swt_v4x64