# DIS package for  SEAWAT, generated by Flopy.
        50         1       100         1         4         2
  0  0  0  0  0  0  0  0  0  0  0  0  0  0  0  0  0  0  0  0  0  0  0  0  0  0  0  0  0  0  0  0  0  0  0  0  0  0  0  0  0  0  0  0  0  0  0  0  0  0
         0      0.02                           -1 #delr
         0         1                           -1 #delc
         0         1                           -1 #model_top
         0      0.98                           -1 #botm layer 1
         0      0.96                           -1 #botm layer 2
         0      0.94                           -1 #botm layer 3
         0      0.92                           -1 #botm layer 4
         0       0.9                           -1 #botm layer 5
         0      0.88                           -1 #botm layer 6
         0      0.86                           -1 #botm layer 7
         0      0.84                           -1 #botm layer 8
         0      0.82                           -1 #botm layer 9
         0       0.8                           -1 #botm layer 10
         0      0.78                           -1 #botm layer 11
         0      0.76                           -1 #botm layer 12
         0      0.74                           -1 #botm layer 13
         0      0.72                           -1 #botm layer 14
         0       0.7                           -1 #botm layer 15
         0      0.68                           -1 #botm layer 16
         0      0.66                           -1 #botm layer 17
         0      0.64                           -1 #botm layer 18
         0      0.62                           -1 #botm layer 19
         0       0.6                           -1 #botm layer 20
         0      0.58                           -1 #botm layer 21
         0      0.56                           -1 #botm layer 22
         0      0.54                           -1 #botm layer 23
         0      0.52                           -1 #botm layer 24
         0       0.5                           -1 #botm layer 25
         0      0.48                           -1 #botm layer 26
         0      0.46                           -1 #botm layer 27
         0      0.44                           -1 #botm layer 28
         0      0.42                           -1 #botm layer 29
         0       0.4                           -1 #botm layer 30
         0      0.38                           -1 #botm layer 31
         0      0.36                           -1 #botm layer 32
         0      0.34                           -1 #botm layer 33
         0      0.32                           -1 #botm layer 34
         0       0.3                           -1 #botm layer 35
         0      0.28                           -1 #botm layer 36
         0      0.26                           -1 #botm layer 37
         0      0.24                           -1 #botm layer 38
         0      0.22                           -1 #botm layer 39
         0       0.2                           -1 #botm layer 40
         0      0.18                           -1 #botm layer 41
         0      0.16                           -1 #botm layer 42
         0      0.14                           -1 #botm layer 43
         0      0.12                           -1 #botm layer 44
         0       0.1                           -1 #botm layer 45
         0      0.08                           -1 #botm layer 46
         0      0.06                           -1 #botm layer 47
         0      0.04                           -1 #botm layer 48
         0      0.02                           -1 #botm layer 49
         0         0                           -1 #botm layer 50
      1.500000            15  1.000000  SS 
