# WEL package for  SEAWAT, generated by Flopy.
        50         0
        50         0 # stress period 1
         1         1         1   1.1404000E-01
         2         1         1   1.1404000E-01
         3         1         1   1.1404000E-01
         4         1         1   1.1404000E-01
         5         1         1   1.1404000E-01
         6         1         1   1.1404000E-01
         7         1         1   1.1404000E-01
         8         1         1   1.1404000E-01
         9         1         1   1.1404000E-01
        10         1         1   1.1404000E-01
        11         1         1   1.1404000E-01
        12         1         1   1.1404000E-01
        13         1         1   1.1404000E-01
        14         1         1   1.1404000E-01
        15         1         1   1.1404000E-01
        16         1         1   1.1404000E-01
        17         1         1   1.1404000E-01
        18         1         1   1.1404000E-01
        19         1         1   1.1404000E-01
        20         1         1   1.1404000E-01
        21         1         1   1.1404000E-01
        22         1         1   1.1404000E-01
        23         1         1   1.1404000E-01
        24         1         1   1.1404000E-01
        25         1         1   1.1404000E-01
        26         1         1   1.1404000E-01
        27         1         1   1.1404000E-01
        28         1         1   1.1404000E-01
        29         1         1   1.1404000E-01
        30         1         1   1.1404000E-01
        31         1         1   1.1404000E-01
        32         1         1   1.1404000E-01
        33         1         1   1.1404000E-01
        34         1         1   1.1404000E-01
        35         1         1   1.1404000E-01
        36         1         1   1.1404000E-01
        37         1         1   1.1404000E-01
        38         1         1   1.1404000E-01
        39         1         1   1.1404000E-01
        40         1         1   1.1404000E-01
        41         1         1   1.1404000E-01
        42         1         1   1.1404000E-01
        43         1         1   1.1404000E-01
        44         1         1   1.1404000E-01
        45         1         1   1.1404000E-01
        46         1         1   1.1404000E-01
        47         1         1   1.1404000E-01
        48         1         1   1.1404000E-01
        49         1         1   1.1404000E-01
        50         1         1   1.1404000E-01
