# DIS package for  SEAWAT, generated by Flopy.
        40         1        70         1         4         2
  0  0  0  0  0  0  0  0  0  0  0  0  0  0  0  0  0  0  0  0  0  0  0  0  0  0  0  0  0  0  0  0  0  0  0  0  0  0  0  0
         0         1                           -1 #delr
         0         1                           -1 #delc
         0        20                           -1 #model_top
         0      19.5                           -1 #botm layer 1
         0        19                           -1 #botm layer 2
         0      18.5                           -1 #botm layer 3
         0        18                           -1 #botm layer 4
         0      17.5                           -1 #botm layer 5
         0        17                           -1 #botm layer 6
         0      16.5                           -1 #botm layer 7
         0        16                           -1 #botm layer 8
         0      15.5                           -1 #botm layer 9
         0        15                           -1 #botm layer 10
         0      14.5                           -1 #botm layer 11
         0        14                           -1 #botm layer 12
         0      13.5                           -1 #botm layer 13
         0        13                           -1 #botm layer 14
         0      12.5                           -1 #botm layer 15
         0        12                           -1 #botm layer 16
         0      11.5                           -1 #botm layer 17
         0        11                           -1 #botm layer 18
         0      10.5                           -1 #botm layer 19
         0        10                           -1 #botm layer 20
         0       9.5                           -1 #botm layer 21
         0         9                           -1 #botm layer 22
         0       8.5                           -1 #botm layer 23
         0         8                           -1 #botm layer 24
         0       7.5                           -1 #botm layer 25
         0         7                           -1 #botm layer 26
         0       6.5                           -1 #botm layer 27
         0         6                           -1 #botm layer 28
         0       5.5                           -1 #botm layer 29
         0         5                           -1 #botm layer 30
         0       4.5                           -1 #botm layer 31
         0         4                           -1 #botm layer 32
         0       3.5                           -1 #botm layer 33
         0         3                           -1 #botm layer 34
         0       2.5                           -1 #botm layer 35
         0         2                           -1 #botm layer 36
         0       1.5                           -1 #botm layer 37
         0         1                           -1 #botm layer 38
         0       0.5                           -1 #botm layer 39
         0         0                           -1 #botm layer 40
    100.000000           100  1.000000  SS 
