# Name file for SEAWAT, generated by Flopy version 3.2.6.
LIST               2  test_write_input.list
DIS               11  test_write_input.dis 
BAS6              13  test_write_input.bas 
LPF               15  test_write_input.lpf 
PCG               27  test_write_input.pcg 
OC                14  test_write_input.oc 
BTN               31  test_write_input.btn 
ADV               32  test_write_input.adv 
DSP               33  test_write_input.dsp 
GCG               35  test_write_input.gcg 
SSM               34  test_write_input.ssm 
VDF               37  test_write_input.vdf 
DATA(BINARY)      53  test_write_input.cbc REPLACE
DATA(BINARY)      51  test_write_input.hds REPLACE
