## BTN for MT3DMS, generated by Flopy.
##
        40         1        70         1         1         1
D   M   KG  
T T T F T 
 0 0 0 0 0 0 0 0 0 0 0 0 0 0 0 0 0 0 0 0 0 0 0 0 0 0 0 0 0 0 0 0 0 0 0 0 0 0 0 0
         0         1                           -1 #delr
         0         1                           -1 #delc
         0        20                           -1 #htop
         0       0.5                           -1 #dz layer 1
         0       0.5                           -1 #dz layer 2
         0       0.5                           -1 #dz layer 3
         0       0.5                           -1 #dz layer 4
         0       0.5                           -1 #dz layer 5
         0       0.5                           -1 #dz layer 6
         0       0.5                           -1 #dz layer 7
         0       0.5                           -1 #dz layer 8
         0       0.5                           -1 #dz layer 9
         0       0.5                           -1 #dz layer 10
         0       0.5                           -1 #dz layer 11
         0       0.5                           -1 #dz layer 12
         0       0.5                           -1 #dz layer 13
         0       0.5                           -1 #dz layer 14
         0       0.5                           -1 #dz layer 15
         0       0.5                           -1 #dz layer 16
         0       0.5                           -1 #dz layer 17
         0       0.5                           -1 #dz layer 18
         0       0.5                           -1 #dz layer 19
         0       0.5                           -1 #dz layer 20
         0       0.5                           -1 #dz layer 21
         0       0.5                           -1 #dz layer 22
         0       0.5                           -1 #dz layer 23
         0       0.5                           -1 #dz layer 24
         0       0.5                           -1 #dz layer 25
         0       0.5                           -1 #dz layer 26
         0       0.5                           -1 #dz layer 27
         0       0.5                           -1 #dz layer 28
         0       0.5                           -1 #dz layer 29
         0       0.5                           -1 #dz layer 30
         0       0.5                           -1 #dz layer 31
         0       0.5                           -1 #dz layer 32
         0       0.5                           -1 #dz layer 33
         0       0.5                           -1 #dz layer 34
         0       0.5                           -1 #dz layer 35
         0       0.5                           -1 #dz layer 36
         0       0.5                           -1 #dz layer 37
         0       0.5                           -1 #dz layer 38
         0       0.5                           -1 #dz layer 39
         0       0.5                           -1 #dz layer 40
         0       0.2                           -1 #prsity layer 1
         0       0.2                           -1 #prsity layer 2
         0       0.2                           -1 #prsity layer 3
         0       0.2                           -1 #prsity layer 4
         0       0.2                           -1 #prsity layer 5
         0       0.2                           -1 #prsity layer 6
         0       0.2                           -1 #prsity layer 7
         0       0.2                           -1 #prsity layer 8
         0       0.2                           -1 #prsity layer 9
         0       0.2                           -1 #prsity layer 10
         0       0.2                           -1 #prsity layer 11
         0       0.2                           -1 #prsity layer 12
         0       0.2                           -1 #prsity layer 13
         0       0.2                           -1 #prsity layer 14
         0       0.2                           -1 #prsity layer 15
         0       0.2                           -1 #prsity layer 16
         0       0.2                           -1 #prsity layer 17
         0       0.2                           -1 #prsity layer 18
         0       0.2                           -1 #prsity layer 19
         0       0.2                           -1 #prsity layer 20
         0       0.2                           -1 #prsity layer 21
         0       0.2                           -1 #prsity layer 22
         0       0.2                           -1 #prsity layer 23
         0       0.2                           -1 #prsity layer 24
         0       0.2                           -1 #prsity layer 25
         0       0.2                           -1 #prsity layer 26
         0       0.2                           -1 #prsity layer 27
         0       0.2                           -1 #prsity layer 28
         0       0.2                           -1 #prsity layer 29
         0       0.2                           -1 #prsity layer 30
         0       0.2                           -1 #prsity layer 31
         0       0.2                           -1 #prsity layer 32
         0       0.2                           -1 #prsity layer 33
         0       0.2                           -1 #prsity layer 34
         0       0.2                           -1 #prsity layer 35
         0       0.2                           -1 #prsity layer 36
         0       0.2                           -1 #prsity layer 37
         0       0.2                           -1 #prsity layer 38
         0       0.2                           -1 #prsity layer 39
         0       0.2                           -1 #prsity layer 40
        31         1            (70I10)        -1 #icbund layer 1
        -1         1         1         1         1         1         1         1         1         1         1         1         1         1         1         1         1         1         1         1         1         1         1         1         1         1         1         1         1         1        -1        -1        -1        -1        -1        -1        -1        -1        -1        -1        -1        -1        -1        -1        -1        -1        -1        -1        -1        -1        -1        -1        -1        -1        -1        -1        -1        -1        -1        -1        -1        -1        -1        -1        -1        -1        -1        -1        -1        -1
        31         1            (70I10)        -1 #icbund layer 2
        -1         1         1         1         1         1         1         1         1         1         1         1         1         1         1         1         1         1         1         1         1         1         1         1         1         1         1         1         1         1         1         1         1         1         1         1         1         1         1         1         1         1         1         1         1         1         1         1         1         1         1         1         1         1         1         1         1         1         1         1         1         1         1         1         1         1         1         1         1         1
        31         1            (70I10)        -1 #icbund layer 3
        -1         1         1         1         1         1         1         1         1         1         1         1         1         1         1         1         1         1         1         1         1         1         1         1         1         1         1         1         1         1         1         1         1         1         1         1         1         1         1         1         1         1         1         1         1         1         1         1         1         1         1         1         1         1         1         1         1         1         1         1         1         1         1         1         1         1         1         1         1         1
        31         1            (70I10)        -1 #icbund layer 4
        -1         1         1         1         1         1         1         1         1         1         1         1         1         1         1         1         1         1         1         1         1         1         1         1         1         1         1         1         1         1         1         1         1         1         1         1         1         1         1         1         1         1         1         1         1         1         1         1         1         1         1         1         1         1         1         1         1         1         1         1         1         1         1         1         1         1         1         1         1         1
        31         1            (70I10)        -1 #icbund layer 5
        -1         1         1         1         1         1         1         1         1         1         1         1         1         1         1         1         1         1         1         1         1         1         1         1         1         1         1         1         1         1         1         1         1         1         1         1         1         1         1         1         1         1         1         1         1         1         1         1         1         1         1         1         1         1         1         1         1         1         1         1         1         1         1         1         1         1         1         1         1         1
        31         1            (70I10)        -1 #icbund layer 6
        -1         1         1         1         1         1         1         1         1         1         1         1         1         1         1         1         1         1         1         1         1         1         1         1         1         1         1         1         1         1         1         1         1         1         1         1         1         1         1         1         1         1         1         1         1         1         1         1         1         1         1         1         1         1         1         1         1         1         1         1         1         1         1         1         1         1         1         1         1         1
        31         1            (70I10)        -1 #icbund layer 7
        -1         1         1         1         1         1         1         1         1         1         1         1         1         1         1         1         1         1         1         1         1         1         1         1         1         1         1         1         1         1         1         1         1         1         1         1         1         1         1         1         1         1         1         1         1         1         1         1         1         1         1         1         1         1         1         1         1         1         1         1         1         1         1         1         1         1         1         1         1         1
        31         1            (70I10)        -1 #icbund layer 8
        -1         1         1         1         1         1         1         1         1         1         1         1         1         1         1         1         1         1         1         1         1         1         1         1         1         1         1         1         1         1         1         1         1         1         1         1         1         1         1         1         1         1         1         1         1         1         1         1         1         1         1         1         1         1         1         1         1         1         1         1         1         1         1         1         1         1         1         1         1         1
        31         1            (70I10)        -1 #icbund layer 9
        -1         1         1         1         1         1         1         1         1         1         1         1         1         1         1         1         1         1         1         1         1         1         1         1         1         1         1         1         1         1         1         1         1         1         1         1         1         1         1         1         1         1         1         1         1         1         1         1         1         1         1         1         1         1         1         1         1         1         1         1         1         1         1         1         1         1         1         1         1         1
        31         1            (70I10)        -1 #icbund layer 10
        -1         1         1         1         1         1         1         1         1         1         1         1         1         1         1         1         1         1         1         1         1         1         1         1         1         1         1         1         1         1         1         1         1         1         1         1         1         1         1         1         1         1         1         1         1         1         1         1         1         1         1         1         1         1         1         1         1         1         1         1         1         1         1         1         1         1         1         1         1         1
        31         1            (70I10)        -1 #icbund layer 11
        -1         1         1         1         1         1         1         1         1         1         1         1         1         1         1         1         1         1         1         1         1         1         1         1         1         1         1         1         1         1         1         1         1         1         1         1         1         1         1         1         1         1         1         1         1         1         1         1         1         1         1         1         1         1         1         1         1         1         1         1         1         1         1         1         1         1         1         1         1         1
        31         1            (70I10)        -1 #icbund layer 12
        -1         1         1         1         1         1         1         1         1         1         1         1         1         1         1         1         1         1         1         1         1         1         1         1         1         1         1         1         1         1         1         1         1         1         1         1         1         1         1         1         1         1         1         1         1         1         1         1         1         1         1         1         1         1         1         1         1         1         1         1         1         1         1         1         1         1         1         1         1         1
        31         1            (70I10)        -1 #icbund layer 13
        -1         1         1         1         1         1         1         1         1         1         1         1         1         1         1         1         1         1         1         1         1         1         1         1         1         1         1         1         1         1         1         1         1         1         1         1         1         1         1         1         1         1         1         1         1         1         1         1         1         1         1         1         1         1         1         1         1         1         1         1         1         1         1         1         1         1         1         1         1         1
        31         1            (70I10)        -1 #icbund layer 14
        -1         1         1         1         1         1         1         1         1         1         1         1         1         1         1         1         1         1         1         1         1         1         1         1         1         1         1         1         1         1         1         1         1         1         1         1         1         1         1         1         1         1         1         1         1         1         1         1         1         1         1         1         1         1         1         1         1         1         1         1         1         1         1         1         1         1         1         1         1         1
        31         1            (70I10)        -1 #icbund layer 15
        -1         1         1         1         1         1         1         1         1         1         1         1         1         1         1         1         1         1         1         1         1         1         1         1         1         1         1         1         1         1         1         1         1         1         1         1         1         1         1         1         1         1         1         1         1         1         1         1         1         1         1         1         1         1         1         1         1         1         1         1         1         1         1         1         1         1         1         1         1         1
        31         1            (70I10)        -1 #icbund layer 16
        -1         1         1         1         1         1         1         1         1         1         1         1         1         1         1         1         1         1         1         1         1         1         1         1         1         1         1         1         1         1         1         1         1         1         1         1         1         1         1         1         1         1         1         1         1         1         1         1         1         1         1         1         1         1         1         1         1         1         1         1         1         1         1         1         1         1         1         1         1         1
        31         1            (70I10)        -1 #icbund layer 17
        -1         1         1         1         1         1         1         1         1         1         1         1         1         1         1         1         1         1         1         1         1         1         1         1         1         1         1         1         1         1         1         1         1         1         1         1         1         1         1         1         1         1         1         1         1         1         1         1         1         1         1         1         1         1         1         1         1         1         1         1         1         1         1         1         1         1         1         1         1         1
        31         1            (70I10)        -1 #icbund layer 18
        -1         1         1         1         1         1         1         1         1         1         1         1         1         1         1         1         1         1         1         1         1         1         1         1         1         1         1         1         1         1         1         1         1         1         1         1         1         1         1         1         1         1         1         1         1         1         1         1         1         1         1         1         1         1         1         1         1         1         1         1         1         1         1         1         1         1         1         1         1         1
        31         1            (70I10)        -1 #icbund layer 19
        -1         1         1         1         1         1         1         1         1         1         1         1         1         1         1         1         1         1         1         1         1         1         1         1         1         1         1         1         1         1         1         1         1         1         1         1         1         1         1         1         1         1         1         1         1         1         1         1         1         1         1         1         1         1         1         1         1         1         1         1         1         1         1         1         1         1         1         1         1         1
        31         1            (70I10)        -1 #icbund layer 20
        -1         1         1         1         1         1         1         1         1         1         1         1         1         1         1         1         1         1         1         1         1         1         1         1         1         1         1         1         1         1         1         1         1         1         1         1         1         1         1         1         1         1         1         1         1         1         1         1         1         1         1         1         1         1         1         1         1         1         1         1         1         1         1         1         1         1         1         1         1         1
        31         1            (70I10)        -1 #icbund layer 21
        -1         1         1         1         1         1         1         1         1         1         1         1         1         1         1         1         1         1         1         1         1         1         1         1         1         1         1         1         1         1         1         1         1         1         1         1         1         1         1         1         1         1         1         1         1         1         1         1         1         1         1         1         1         1         1         1         1         1         1         1         1         1         1         1         1         1         1         1         1         1
        31         1            (70I10)        -1 #icbund layer 22
        -1         1         1         1         1         1         1         1         1         1         1         1         1         1         1         1         1         1         1         1         1         1         1         1         1         1         1         1         1         1         1         1         1         1         1         1         1         1         1         1         1         1         1         1         1         1         1         1         1         1         1         1         1         1         1         1         1         1         1         1         1         1         1         1         1         1         1         1         1         1
        31         1            (70I10)        -1 #icbund layer 23
        -1         1         1         1         1         1         1         1         1         1         1         1         1         1         1         1         1         1         1         1         1         1         1         1         1         1         1         1         1         1         1         1         1         1         1         1         1         1         1         1         1         1         1         1         1         1         1         1         1         1         1         1         1         1         1         1         1         1         1         1         1         1         1         1         1         1         1         1         1         1
        31         1            (70I10)        -1 #icbund layer 24
        -1         1         1         1         1         1         1         1         1         1         1         1         1         1         1         1         1         1         1         1         1         1         1         1         1         1         1         1         1         1         1         1         1         1         1         1         1         1         1         1         1         1         1         1         1         1         1         1         1         1         1         1         1         1         1         1         1         1         1         1         1         1         1         1         1         1         1         1         1         1
        31         1            (70I10)        -1 #icbund layer 25
        -1         1         1         1         1         1         1         1         1         1         1         1         1         1         1         1         1         1         1         1         1         1         1         1         1         1         1         1         1         1         1         1         1         1         1         1         1         1         1         1         1         1         1         1         1         1         1         1         1         1         1         1         1         1         1         1         1         1         1         1         1         1         1         1         1         1         1         1         1         1
        31         1            (70I10)        -1 #icbund layer 26
        -1         1         1         1         1         1         1         1         1         1         1         1         1         1         1         1         1         1         1         1         1         1         1         1         1         1         1         1         1         1         1         1         1         1         1         1         1         1         1         1         1         1         1         1         1         1         1         1         1         1         1         1         1         1         1         1         1         1         1         1         1         1         1         1         1         1         1         1         1         1
        31         1            (70I10)        -1 #icbund layer 27
        -1         1         1         1         1         1         1         1         1         1         1         1         1         1         1         1         1         1         1         1         1         1         1         1         1         1         1         1         1         1         1         1         1         1         1         1         1         1         1         1         1         1         1         1         1         1         1         1         1         1         1         1         1         1         1         1         1         1         1         1         1         1         1         1         1         1         1         1         1         1
        31         1            (70I10)        -1 #icbund layer 28
        -1         1         1         1         1         1         1         1         1         1         1         1         1         1         1         1         1         1         1         1         1         1         1         1         1         1         1         1         1         1         1         1         1         1         1         1         1         1         1         1         1         1         1         1         1         1         1         1         1         1         1         1         1         1         1         1         1         1         1         1         1         1         1         1         1         1         1         1         1         1
        31         1            (70I10)        -1 #icbund layer 29
        -1         1         1         1         1         1         1         1         1         1         1         1         1         1         1         1         1         1         1         1         1         1         1         1         1         1         1         1         1         1         1         1         1         1         1         1         1         1         1         1         1         1         1         1         1         1         1         1         1         1         1         1         1         1         1         1         1         1         1         1         1         1         1         1         1         1         1         1         1         1
        31         1            (70I10)        -1 #icbund layer 30
        -1         1         1         1         1         1         1         1         1         1         1         1         1         1         1         1         1         1         1         1         1         1         1         1         1         1         1         1         1         1         1         1         1         1         1         1         1         1         1         1         1         1         1         1         1         1         1         1         1         1         1         1         1         1         1         1         1         1         1         1         1         1         1         1         1         1         1         1         1         1
        31         1            (70I10)        -1 #icbund layer 31
        -1         1         1         1         1         1         1         1         1         1         1         1         1         1         1         1         1         1         1         1         1         1         1         1         1         1         1         1         1         1         1         1         1         1         1         1         1         1         1         1         1         1         1         1         1         1         1         1         1         1         1         1         1         1         1         1         1         1         1         1         1         1         1         1         1         1         1         1         1         1
        31         1            (70I10)        -1 #icbund layer 32