# Name file for SEAWAT, generated by Flopy version 3.2.9.
LIST               2  test.list
DIS               11  test.dis 
BAS6              13  test.bas 
LPF               15  test.lpf 
PCG               27  test.pcg 
OC                14  test.oc 
BTN               31  test.btn 
ADV               32  test.adv 
DSP               33  test.dsp 
GCG               35  test.gcg 
SSM               34  test.ssm 
CHD               24  test.chd 
VDF               37  test.vdf 
DATA(BINARY)      53  test.cbc REPLACE
DATA(BINARY)      51  test.hds REPLACE
