# LPF package for  SEAWAT, generated by Flopy.
        53    -1E+30         0  
         0         0         0         0         0         0         0         0         0         0         0         0         0         0         0         0         0         0         0         0         0         0         0         0         0         0         0         0         0         0         0         0         0         0         0         0         0         0         0         0
         0         0         0         0         0         0         0         0         0         0         0         0         0         0         0         0         0         0         0         0         0         0         0         0         0         0         0         0         0         0         0         0         0         0         0         0         0         0         0         0
   1.000000E+00   1.000000E+00   1.000000E+00   1.000000E+00   1.000000E+00   1.000000E+00   1.000000E+00   1.000000E+00   1.000000E+00   1.000000E+00   1.000000E+00   1.000000E+00   1.000000E+00   1.000000E+00   1.000000E+00   1.000000E+00   1.000000E+00   1.000000E+00   1.000000E+00   1.000000E+00   1.000000E+00   1.000000E+00   1.000000E+00   1.000000E+00   1.000000E+00   1.000000E+00   1.000000E+00   1.000000E+00   1.000000E+00   1.000000E+00   1.000000E+00   1.000000E+00   1.000000E+00   1.000000E+00   1.000000E+00   1.000000E+00   1.000000E+00   1.000000E+00   1.000000E+00   1.000000E+00
         0         0         0         0         0         0         0         0         0         0         0         0         0         0         0         0         0         0         0         0         0         0         0         0         0         0         0         0         0         0         0         0         0         0         0         0         0         0         0         0
         0         0         0         0         0         0         0         0         0         0         0         0         0         0         0         0         0         0         0         0         0         0         0         0         0         0         0         0         0         0         0         0         0         0         0         0         0         0         0         0
        15         1          (70E15.6)        -1 #hk layer 1
   8.000000E+01   8.000000E+01   8.000000E+01   8.000000E+01   8.000000E+01   8.000000E+01   8.000000E+01   8.000000E+01   8.000000E+01   8.000000E+01   8.000000E+01   8.000000E+01   8.000000E+01   8.000000E+01   8.000000E+01   8.000000E+01   8.000000E+01   8.000000E+01   8.000000E+01   8.000000E+01   8.000000E+01   8.000000E+01   8.000000E+01   8.000000E+01   8.000000E+01   8.000000E+01   8.000000E+01   8.000000E+01   8.000000E+01   8.000000E+01   8.000000E+01   8.000000E+01   8.000000E+01   8.000000E+01   8.000000E+01   8.000000E+01   8.000000E+01   8.000000E+01   8.000000E+01   8.000000E+01   8.000000E+01   8.000000E+01   8.000000E+01   8.000000E+01   8.000000E+01   8.000000E+01   8.000000E+01   8.000000E+01   8.000000E+01   8.000000E+01   8.000000E+01   8.000000E+01   8.000000E+01   8.000000E+01   8.000000E+01   8.000000E+01   8.000000E+01   8.000000E+01   8.000000E+01   8.000000E+01   8.000000E+01   8.000000E+01   8.000000E+01   8.000000E+01   8.000000E+01   8.000000E+01   8.000000E+01   8.000000E+01   8.000000E+01   8.000000E+01
   8.000000E+01   8.000000E+01   8.000000E+01   8.000000E+01   8.000000E+01   8.000000E+01   8.000000E+01   8.000000E+01   8.000000E+01   8.000000E+01   8.000000E+01   8.000000E+01   8.000000E+01   8.000000E+01   8.000000E+01   8.000000E+01   8.000000E+01   8.000000E+01   8.000000E+01   8.000000E+01   8.000000E+01   8.000000E+01   8.000000E+01   8.000000E+01   8.000000E+01   8.000000E+01   8.000000E+01   8.000000E+01   8.000000E+01   8.000000E+01   8.000000E+01   8.000000E+01   8.000000E+01   8.000000E+01   8.000000E+01   8.000000E+01   8.000000E+01   8.000000E+01   8.000000E+01   8.000000E+01   8.000000E+01   8.000000E+01   8.000000E+01   8.000000E+01   8.000000E+01   8.000000E+01   8.000000E+01   8.000000E+01   8.000000E+01   8.000000E+01   8.000000E+01   8.000000E+01   8.000000E+01   8.000000E+01   8.000000E+01   8.000000E+01   8.000000E+01   8.000000E+01   8.000000E+01   8.000000E+01   8.000000E+01   8.000000E+01   8.000000E+01   8.000000E+01   8.000000E+01   8.000000E+01   8.000000E+01   8.000000E+01   8.000000E+01   8.000000E+01
   8.000000E+01   8.000000E+01   8.000000E+01   8.000000E+01   8.000000E+01   8.000000E+01   8.000000E+01   8.000000E+01   8.000000E+01   8.000000E+01   8.000000E+01   8.000000E+01   8.000000E+01   8.000000E+01   8.000000E+01   8.000000E+01   8.000000E+01   8.000000E+01   8.000000E+01   8.000000E+01   8.000000E+01   8.000000E+01   8.000000E+01   8.000000E+01   8.000000E+01   8.000000E+01   8.000000E+01   8.000000E+01   8.000000E+01   8.000000E+01   8.000000E+01   8.000000E+01   8.000000E+01   8.000000E+01   8.000000E+01   8.000000E+01   8.000000E+01   8.000000E+01   8.000000E+01   8.000000E+01   8.000000E+01   8.000000E+01   8.000000E+01   8.000000E+01   8.000000E+01   8.000000E+01   8.000000E+01   8.000000E+01   8.000000E+01   8.000000E+01   8.000000E+01   8.000000E+01   8.000000E+01   8.000000E+01   8.000000E+01   8.000000E+01   8.000000E+01   8.000000E+01   8.000000E+01   8.000000E+01   8.000000E+01   8.000000E+01   8.000000E+01   8.000000E+01   8.000000E+01   8.000000E+01   8.000000E+01   8.000000E+01   8.000000E+01   8.000000E+01
         0       0.1                           -1 #vka layer 1
        15         1          (70E15.6)        -1 #hk layer 2
   8.000000E+01   8.000000E+01   8.000000E+01   8.000000E+01   1.000000E+00   1.000000E+00   1.000000E+00   1.000000E+00   1.000000E+00   1.000000E+00   1.000000E+00   8.000000E+01   8.000000E+01   8.000000E+01   8.000000E+01   8.000000E+01   8.000000E+01   8.000000E+01   8.000000E+01   8.000000E+01   8.000000E+01   8.000000E+01   8.000000E+01   8.000000E+01   8.000000E+01   8.000000E+01   8.000000E+01   8.000000E+01   8.000000E+01   8.000000E+01   8.000000E+01   8.000000E+01   8.000000E+01   1.000000E+00   1.000000E+00   1.000000E+00   1.000000E+00   1.000000E+00   8.000000E+01   8.000000E+01   8.000000E+01   8.000000E+01   8.000000E+01   8.000000E+01   8.000000E+01   8.000000E+01   8.000000E+01   8.000000E+01   8.000000E+01   8.000000E+01   8.000000E+01   8.000000E+01   8.000000E+01   8.000000E+01   8.000000E+01   8.000000E+01   8.000000E+01   8.000000E+01   8.000000E+01   8.000000E+01   8.000000E+01   8.000000E+01   8.000000E+01   8.000000E+01   8.000000E+01   8.000000E+01   8.000000E+01   8.000000E+01   8.000000E+01   8.000000E+01
   8.000000E+01   8.000000E+01   8.000000E+01   8.000000E+01   1.000000E+00   1.000000E+00   1.000000E+00   1.000000E+00   1.000000E+00   1.000000E+00   1.000000E+00   1.000000E+00   1.000000E+00   1.000000E+00   1.000000E+00   8.000000E+01   8.000000E+01   8.000000E+01   8.000000E+01   8.000000E+01   8.000000E+01   8.000000E+01   8.000000E+01   8.000000E+01   8.000000E+01   8.000000E+01   8.000000E+01   8.000000E+01   8.000000E+01   8.000000E+01   8.000000E+01   8.000000E+01   8.000000E+01   1.000000E+00   1.000000E+00   1.000000E+00   1.000000E+00   1.000000E+00   8.000000E+01   8.000000E+01   8.000000E+01   8.000000E+01   8.000000E+01   8.000000E+01   8.000000E+01   8.000000E+01   8.000000E+01   8.000000E+01   8.000000E+01   8.000000E+01   8.000000E+01   8.000000E+01   8.000000E+01   8.000000E+01   8.000000E+01   8.000000E+01   8.000000E+01   8.000000E+01   8.000000E+01   8.000000E+01   8.000000E+01   8.000000E+01   8.000000E+01   8.000000E+01   8.000000E+01   8.000000E+01   8.000000E+01   8.000000E+01   8.000000E+01   8.000000E+01
   8.000000E+01   8.000000E+01   8.000000E+01   8.000000E+01   8.000000E+01   8.000000E+01   8.000000E+01   8.000000E+01   8.000000E+01   8.000000E+01   1.000000E+00   1.000000E+00   1.000000E+00   1.000000E+00   1.000000E+00   8.000000E+01   8.000000E+01   8.000000E+01   8.000000E+01   8.000000E+01   8.000000E+01   8.000000E+01   8.000000E+01   8.000000E+01   8.000000E+01   8.000000E+01   8.000000E+01   8.000000E+01   8.000000E+01   8.000000E+01   8.000000E+01   8.000000E+01   8.000000E+01   8.000000E+01   8.000000E+01   8.000000E+01   8.000000E+01   8.000000E+01   8.000000E+01   8.000000E+01   8.000000E+01   8.000000E+01   8.000000E+01   8.000000E+01   8.000000E+01   8.000000E+01   8.000000E+01   8.000000E+01   8.000000E+01   8.000000E+01   8.000000E+01   8.000000E+01   8.000000E+01   8.000000E+01   8.000000E+01   8.000000E+01   8.000000E+01   8.000000E+01   8.000000E+01   8.000000E+01   8.000000E+01   8.000000E+01   8.000000E+01   8.000000E+01   8.000000E+01   8.000000E+01   8.000000E+01   8.000000E+01   8.000000E+01   8.000000E+01
         0       0.1                           -1 #vka layer 2
        15         1          (70E15.6)        -1 #hk layer 3
   8.000000E+01   8.000000E+01   8.000000E+01   8.000000E+01   1.000000E+00   1.000000E+00   1.000000E+00   1.000000E+00   1.000000E+00   1.000000E+00   1.000000E+00   8.000000E+01   8.000000E+01   8.000000E+01   8.000000E+01   8.000000E+01   8.000000E+01   8.000000E+01   8.000000E+01   8.000000E+01   8.000000E+01   8.000000E+01   8.000000E+01   8.000000E+01   8.000000E+01   8.000000E+01   8.000000E+01   8.000000E+01   8.000000E+01   8.000000E+01   8.000000E+01   8.000000E+01   8.000000E+01   1.000000E+00   1.000000E+00   1.000000E+00   1.000000E+00   1.000000E+00   8.000000E+01   8.000000E+01   8.000000E+01   8.000000E+01   8.000000E+01   8.000000E+01   8.000000E+01   8.000000E+01   8.000000E+01   8.000000E+01   8.000000E+01   8.000000E+01   8.000000E+01   8.000000E+01   8.000000E+01   8.000000E+01   8.000000E+01   8.000000E+01   8.000000E+01   8.000000E+01   8.000000E+01   8.000000E+01   8.000000E+01   8.000000E+01   8.000000E+01   8.000000E+01   8.000000E+01   8.000000E+01   8.000000E+01   8.000000E+01   8.000000E+01   8.000000E+01
   8.000000E+01   8.000000E+01   8.000000E+01   8.000000E+01   1.000000E+00   1.000000E+00   1.000000E+00   1.000000E+00   1.000000E+00   1.000000E+00   1.000000E+00   1.000000E+00   1.000000E+00   1.000000E+00   1.000000E+00   1.000000E+00   8.000000E+01   8.000000E+01   8.000000E+01   8.000000E+01   8.000000E+01   8.000000E+01   8.000000E+01   8.000000E+01   8.000000E+01   8.000000E+01   8.000000E+01   8.000000E+01   8.000000E+01   8.000000E+01   8.000000E+01   1.000000E+00   1.000000E+00   1.000000E+00   1.000000E+00   1.000000E+00   1.000000E+00   1.000000E+00   8.000000E+01   8.000000E+01   8.000000E+01   8.000000E+01   8.000000E+01   8.000000E+01   8.000000E+01   8.000000E+01   8.000000E+01   8.000000E+01   8.000000E+01   8.000000E+01   8.000000E+01   8.000000E+01   8.000000E+01   8.000000E+01   8.000000E+01   8.000000E+01   8.000000E+01   1.000000E+00   1.000000E+00   1.000000E+00   1.000000E+00   1.000000E+00   8.000000E+01   8.000000E+01   8.000000E+01   8.000000E+01   8.000000E+01   8.000000E+01   8.000000E+01   8.000000E+01
   8.000000E+01   8.000000E+01   8.000000E+01   8.000000E+01   8.000000E+01   8.000000E+01   8.000000E+01   8.000000E+01   8.000000E+01   8.000000E+01   1.000000E+00   1.000000E+00   1.000000E+00   1.000000E+00   1.000000E+00   1.000000E+00   8.000000E+01   8.000000E+01   8.000000E+01   8.000000E+01   8.000000E+01   8.000000E+01   8.000000E+01   8.000000E+01   8.000000E+01   8.000000E+01   8.000000E+01   8.000000E+01   8.000000E+01   8.000000E+01   8.000000E+01   1.000000E+00   1.000000E+00   1.000000E+00   1.000000E+00   1.000000E+00   8.000000E+01   8.000000E+01   8.000000E+01   8.000000E+01   8.000000E+01   8.000000E+01   8.000000E+01   8.000000E+01   8.000000E+01   8.000000E+01   8.000000E+01   8.000000E+01   8.000000E+01   8.000000E+01   8.000000E+01   8.000000E+01   8.000000E+01   8.000000E+01   8.000000E+01   8.000000E+01   8.000000E+01   1.000000E+00   1.000000E+00   1.000000E+00   1.000000E+00   1.000000E+00   8.000000E+01   8.000000E+01   8.000000E+01   8.000000E+01   8.000000E+01   8.000000E+01   8.000000E+01   8.000000E+01
         0       0.1                           -1 #vka layer 3
        15         1          (70E15.6)        -1 #hk layer 4
   8.000000E+01   8.000000E+01   8.000000E+01   8.000000E+01   8.000000E+01   8.000000E+01   8.000000E+01   8.000000E+01   8.000000E+01   8.000000E+01   8.000000E+01   8.000000E+01   8.000000E+01   8.000000E+01   8.000000E+01   8.000000E+01   1.000000E+00   1.000000E+00   1.000000E+00   1.000000E+00   1.000000E+00   8.000000E+01   8.000000E+01   8.000000E+01   8.000000E+01   8.000000E+01   8.000000E+01   8.000000E+01   8.000000E+01   8.000000E+01   8.000000E+01   8.000000E+01   8.000000E+01   8.000000E+01   8.000000E+01   8.000000E+01   8.000000E+01   8.000000E+01   8.000000E+01   8.000000E+01   8.000000E+01   8.000000E+01   8.000000E+01   8.000000E+01   8.000000E+01   8.000000E+01   8.000000E+01   8.000000E+01   8.000000E+01   8.000000E+01   8.000000E+01   8.000000E+01   8.000000E+01   8.000000E+01   8.000000E+01   8.000000E+01   8.000000E+01   8.000000E+01   8.000000E+01   8.000000E+01   8.000000E+01   8.000000E+01   8.000000E+01   8.000000E+01   8.000000E+01   8.000000E+01   8.000000E+01   8.000000E+01   8.000000E+01   8.000000E+01
   8.000000E+01   8.000000E+01   8.000000E+01   8.000000E+01   8.000000E+01   8.000000E+01   8.000000E+01   8.000000E+01   8.000000E+01   8.000000E+01   8.000000E+01   1.000000E+00   1.000000E+00   1.000000E+00   1.000000E+00   1.000000E+00   1.000000E+00   1.000000E+00   1.000000E+00   1.000000E+00   1.000000E+00   1.000000E+00   1.000000E+00   1.000000E+00   1.000000E+00   8.000000E+01   8.000000E+01   8.000000E+01   8.000000E+01   8.000000E+01   8.000000E+01   1.000000E+00   1.000000E+00   1.000000E+00   1.000000E+00   1.000000E+00   8.000000E+01   8.000000E+01   8.000000E+01   8.000000E+01   8.000000E+01   8.000000E+01   8.000000E+01   8.000000E+01   8.000000E+01   8.000000E+01   8.000000E+01   8.000000E+01   8.000000E+01   8.000000E+01   8.000000E+01   8.000000E+01   8.000000E+01   8.000000E+01   8.000000E+01   8.000000E+01   8.000000E+01   1.000000E+00   1.000000E+00   1.000000E+00   1.000000E+00   1.000000E+00   8.000000E+01   8.000000E+01   8.000000E+01   8.000000E+01   8.000000E+01   8.000000E+01   8.000000E+01   8.000000E+01
   8.000000E+01   8.000000E+01   8.000000E+01   8.000000E+01   8.000000E+01   8.000000E+01   8.000000E+01   8.000000E+01   8.000000E+01   8.000000E+01   8.000000E+01   1.000000E+00   1.000000E+00   1.000000E+00   1.000000E+00   1.000000E+00   8.000000E+01   8.000000E+01   8.000000E+01   8.000000E+01   1.000000E+00   1.000000E+00   1.000000E+00   1.000000E+00   1.000000E+00   8.000000E+01   8.000000E+01   8.000000E+01   8.000000E+01   8.000000E+01   8.000000E+01   1.000000E+00   1.000000E+00   1.000000E+00   1.000000E+00   1.000000E+00   8.000000E+01   8.000000E+01   8.000000E+01   8.000000E+01   8.000000E+01   8.000000E+01   8.000000E+01   8.000000E+01   8.000000E+01   8.000000E+01   8.000000E+01   8.000000E+01   8.000000E+01   8.000000E+01   8.000000E+01   8.000000E+01   8.000000E+01   8.000000E+01   8.000000E+01   8.000000E+01   8.000000E+01   1.000000E+00   1.000000E+00   1.000000E+00   1.000000E+00   1.000000E+00   8.000000E+01   8.000000E+01   8.000000E+01   8.000000E+01   8.000000E+01   8.000000E+01   8.000000E+01   8.000000E+01
         0       0.1                           -1 #vka layer 4
        15         1          (70E15.6)        -1 #hk layer 5
   8.000000E+01   8.000000E+01   8.000000E+01   8.000000E+01   8.000000E+01   8.000000E+01   8.000000E+01   8.000000E+01   8.000000E+01   8.000000E+01   1.000000E+00   1.000000E+00   1.000000E+00   1.000000E+00   1.000000E+00   8.000000E+01   1.000000E+00   1.000000E+00   1.000000E+00   1.000000E+00   1.000000E+00   1.000000E+00   1.000000E+00   1.000000E+00   1.000000E+00   8.000000E+01   8.000000E+01   8.000000E+01   8.000000E+01   8.000000E+01   8.000000E+01   8.000000E+01   8.000000E+01   8.000000E+01   8.000000E+01   8.000000E+01   8.000000E+01   8.000000E+01   8.000000E+01   8.000000E+01   8.000000E+01   8.000000E+01   8.000000E+01   8.000000E+01   8.000000E+01   8.000000E+01   8.000000E+01   8.000000E+01   8.000000E+01   8.000000E+01   1.000000E+00   1.000000E+00   1.000000E+00   1.000000E+00   1.000000E+00   8.000000E+01   8.000000E+01   8.000000E+01   8.000000E+01   8.000000E+01   8.000000E+01   8.000000E+01   8.000000E+01   8.000000E+01   1.000000E+00   1.000000E+00   1.000000E+00   1.000000E+00   1.000000E+00   8.000000E+01
   8.000000E+01   8.000000E+01   8.000000E+01   8.000000E+01   8.000000E+01   8.000000E+01   8.000000E+01   8.000000E+01   8.000000E+01   8.000000E+01   1.000000E+00   1.000000E+00   1.000000E+00   1.000000E+00   1.000000E+00   8.000000E+01   1.000000E+00   1.000000E+00   1.000000E+00   1.000000E+00   1.000000E+00   1.000000E+00   1.000000E+00   1.000000E+00   1.000000E+00   8.000000E+01   8.000000E+01   8.000000E+01   1.000000E+00   1.000000E+00   1.000000E+00   1.000000E+00   1.000000E+00   8.000000E+01   8.000000E+01   8.000000E+01   8.000000E+01   8.000000E+01   8.000000E+01   8.000000E+01   8.000000E+01   8.000000E+01   8.000000E+01   8.000000E+01   8.000000E+01   8.000000E+01   8.000000E+01   8.000000E+01   8.000000E+01   8.000000E+01   1.000000E+00   1.000000E+00   1.000000E+00   1.000000E+00   1.000000E+00   8.000000E+01   8.000000E+01   8.000000E+01   8.000000E+01   8.000000E+01   8.000000E+01   8.000000E+01   8.000000E+01   8.000000E+01   1.000000E+00   1.000000E+00   1.000000E+00   1.000000E+00   1.000000E+00   8.000000E+01
   8.000000E+01   8.000000E+01   8.000000E+01   8.000000E+01   8.000000E+01   8.000000E+01   8.000000E+01   8.000000E+01   8.000000E+01   8.000000E+01   8.000000E+01   8.000000E+01   8.000000E+01   8.000000E+01   8.000000E+01   8.000000E+01   8.000000E+01   1.000000E+00   1.000000E+00   1.000000E+00   1.000000E+00   1.000000E+00   1.000000E+00   1.000000E+00   1.000000E+00   8.000000E+01   8.000000E+01   8.000000E+01   1.000000E+00   1.000000E+00   1.000000E+00   1.000000E+00   1.000000E+00   8.000000E+01   8.000000E+01   8.000000E+01   8.000000E+01   8.000000E+01   8.000000E+01   8.000000E+01   8.000000E+01   8.000000E+01   8.000000E+01   8.000000E+01   8.000000E+01   8.000000E+01   8.000000E+01   8.000000E+01   8.000000E+01   8.000000E+01   8.000000E+01   8.000000E+01   8.000000E+01   8.000000E+01   8.000000E+01   8.000000E+01   8.000000E+01   8.000000E+01   8.000000E+01   8.000000E+01   8.000000E+01   8.000000E+01   8.000000E+01   8.000000E+01   8.000000E+01   8.000000E+01   8.000000E+01   8.000000E+01   8.000000E+01   8.000000E+01
         0       0.1                           -1 #vka layer 5
        15         1          (70E15.6)        -1 #hk layer 6
   8.000000E+01   8.000000E+01   8.000000E+01   8.000000E+01   8.000000E+01   8.000000E+01   8.000000E+01   8.000000E+01   8.000000E+01   8.000000E+01   1.000000E+00   1.000000E+00   1.000000E+00   1.000000E+00   1.000000E+00   8.000000E+01   8.000000E+01   8.000000E+01   8.000000E+01   8.000000E+01   1.000000E+00   1.000000E+00   1.000000E+00   1.000000E+00   1.000000E+00   8.000000E+01   8.000000E+01   8.000000E+01   8.000000E+01   8.000000E+01   8.000000E+01   8.000000E+01   8.000000E+01   8.000000E+01   1.000000E+00   1.000000E+00   1.000000E+00   1.000000E+00   1.000000E+00   8.000000E+01   8.000000E+01   8.000000E+01   8.000000E+01   8.000000E+01   8.000000E+01   8.000000E+01   8.000000E+01   8.000000E+01   8.000000E+01   8.000000E+01   1.000000E+00   1.000000E+00   1.000000E+00   1.000000E+00   1.000000E+00   8.000000E+01   8.000000E+01   8.000000E+01   8.000000E+01   8.000000E+01   8.000000E+01   8.000000E+01   8.000000E+01   8.000000E+01   1.000000E+00   1.000000E+00   1.000000E+00   1.000000E+00   1.000000E+00   8.000000E+01
   8.000000E+01   8.000000E+01   8.000000E+01   8.000000E+01   8.000000E+01   8.000000E+01   8.000000E+01   8.000000E+01   8.000000E+01   1.000000E+00   1.000000E+00   1.000000E+00   1.000000E+00   1.000000E+00   1.000000E+00   8.000000E+01   8.000000E+01   1.000000E+00   1.000000E+00   1.000000E+00   1.000000E+00   1.000000E+00   1.000000E+00   1.000000E+00   1.000000E+00   8.000000E+01   8.000000E+01   8.000000E+01   1.000000E+00   1.000000E+00   1.000000E+00   1.000000E+00   1.000000E+00   8.000000E+01   1.000000E+00   1.000000E+00   1.000000E+00   1.000000E+00   1.000000E+00   8.000000E+01   8.000000E+01   8.000000E+01   8.000000E+01   8.000000E+01   8.000000E+01   8.000000E+01   8.000000E+01   8.000000E+01   8.000000E+01   8.000000E+01   1.000000E+00   1.000000E+00   1.000000E+00   1.000000E+00   1.000000E+00   8.000000E+01   8.000000E+01   8.000000E+01   8.000000E+01   8.000000E+01   8.000000E+01   8.000000E+01   8.000000E+01   8.000000E+01   1.000000E+00   1.000000E+00   1.000000E+00   1.000000E+00   1.000000E+00   8.000000E+01
   8.000000E+01   8.000000E+01   8.000000E+01   8.000000E+01   8.000000E+01   8.000000E+01   8.000000E+01   8.000000E+01   8.000000E+01   1.000000E+00   1.000000E+00   1.000000E+00   1.000000E+00   1.000000E+00   8.000000E+01   8.000000E+01   8.000000E+01   1.000000E+00   1.000000E+00   1.000000E+00   1.000000E+00   1.000000E+00   8.000000E+01   8.000000E+01   8.000000E+01   8.000000E+01   8.000000E+01   8.000000E+01   1.000000E+00   1.000000E+00   1.000000E+00   1.000000E+00   1.000000E+00   8.000000E+01   8.000000E+01   8.000000E+01   8.000000E+01   8.000000E+01   8.000000E+01   8.000000E+01   8.000000E+01   8.000000E+01   8.000000E+01   8.000000E+01   8.000000E+01   8.000000E+01   8.000000E+01   8.000000E+01   8.000000E+01   8.000000E+01   8.000000E+01   8.000000E+01   8.000000E+01   8.000000E+01   8.000000E+01   8.000000E+01   8.000000E+01   8.000000E+01   8.000000E+01   8.000000E+01   8.000000E+01   8.000000E+01   8.000000E+01   8.000000E+01   8.000000E+01   8.000000E+01   8.000000E+01   8.000000E+01   8.000000E+01   8.000000E+01
         0       0.1                           -1 #vka layer 6
        15         1          (70E15.6)        -1 #hk layer 7
   8.000000E+01   8.000000E+01   8.000000E+01   8.000000E+01   8.000000E+01   8.000000E+01   8.000000E+01   8.000000E+01   8.000000E+01   8.000000E+01   8.000000E+01   8.000000E+01   8.000000E+01   8.000000E+01   8.000000E+01   8.000000E+01   8.000000E+01   8.000000E+01   8.000000E+01   8.000000E+01   8.000000E+01   8.000000E+01   8.000000E+01   8.000000E+01   8.000000E+01   8.000000E+01   8.000000E+01   1.000000E+00   1.000000E+00   1.000000E+00   1.000000E+00   1.000000E+00   8.000000E+01   8.000000E+01   1.000000E+00   1.000000E+00   1.000000E+00   1.000000E+00   1.000000E+00   8.000000E+01   8.000000E+01   8.000000E+01   8.000000E+01   8.000000E+01   8.000000E+01   8.000000E+01   8.000000E+01   8.000000E+01   8.000000E+01   8.000000E+01   8.000000E+01   8.000000E+01   8.000000E+01   8.000000E+01   8.000000E+01   8.000000E+01   8.000000E+01   8.000000E+01   8.000000E+01   8.000000E+01   8.000000E+01   8.000000E+01   8.000000E+01   8.000000E+01   8.000000E+01   8.000000E+01   8.000000E+01   8.000000E+01   8.000000E+01   8.000000E+01
   8.000000E+01   8.000000E+01   8.000000E+01   8.000000E+01   8.000000E+01   8.000000E+01   8.000000E+01   8.000000E+01   1.000000E+00   1.000000E+00   1.000000E+00   1.000000E+00   1.000000E+00   1.000000E+00   8.000000E+01   8.000000E+01   8.000000E+01   8.000000E+01   8.000000E+01   8.000000E+01   8.000000E+01   8.000000E+01   8.000000E+01   8.000000E+01   1.000000E+00   1.000000E+00   1.000000E+00   1.000000E+00   1.000000E+00   1.000000E+00   1.000000E+00   1.000000E+00   8.000000E+01   8.000000E+01   1.000000E+00   1.000000E+00   1.000000E+00   1.000000E+00   1.000000E+00   8.000000E+01   8.000000E+01   8.000000E+01   8.000000E+01   8.000000E+01   8.000000E+01   8.000000E+01   1.000000E+00   1.000000E+00   1.000000E+00   1.000000E+00   1.000000E+00   8.000000E+01   8.000000E+01   8.000000E+01   8.000000E+01   8.000000E+01   8.000000E+01   8.000000E+01   8.000000E+01   8.000000E+01   8.000000E+01   8.000000E+01   8.000000E+01   8.000000E+01   8.000000E+01   8.000000E+01   8.000000E+01   8.000000E+01   8.000000E+01   8.000000E+01
   8.000000E+01   8.000000E+01   8.000000E+01   8.000000E+01   8.000000E+01   8.000000E+01   8.000000E+01   8.000000E+01   1.000000E+00   1.000000E+00   1.000000E+00   1.000000E+00   1.000000E+00   1.000000E+00   8.000000E+01   8.000000E+01   8.000000E+01   8.000000E+01   8.000000E+01   8.000000E+01   8.000000E+01   8.000000E+01   8.000000E+01   8.000000E+01   1.000000E+00   1.000000E+00   1.000000E+00   1.000000E+00   1.000000E+00   8.000000E+01   8.000000E+01   8.000000E+01   8.000000E+01   8.000000E+01   8.000000E+01   8.000000E+01   8.000000E+01   8.000000E+01   8.000000E+01   8.000000E+01   8.000000E+01   8.000000E+01   8.000000E+01   8.000000E+01   8.000000E+01   8.000000E+01   1.000000E+00   1.000000E+00   1.000000E+00   1.000000E+00   1.000000E+00   8.000000E+01   8.000000E+01   8.000000E+01   8.000000E+01   8.000000E+01   8.000000E+01   8.000000E+01   8.000000E+01   8.000000E+01   8.000000E+01   8.000000E+01   8.000000E+01   8.000000E+01   8.000000E+01   8.000000E+01   8.000000E+01   8.000000E+01   8.000000E+01   8.000000E+01
         0       0.1                           -1 #vka layer 7
        15         1          (70E15.6)        -1 #hk layer 8
   8.000000E+01   8.000000E+01   8.000000E+01   8.000000E+01   8.000000E+01   8.000000E+01   8.000000E+01   8.000000E+01   8.000000E+01   8.000000E+01   8.000000E+01   8.000000E+01   8.000000E+01   8.000000E+01   8.000000E+01   8.000000E+01   8.000000E+01   8.000000E+01   8.000000E+01   8.000000E+01   8.000000E+01   8.000000E+01   8.000000E+01   8.000000E+01   8.000000E+01   8.000000E+01   8.000000E+01   1.000000E+00   1.000000E+00   1.000000E+00   1.000000E+00   1.000000E+00   8.000000E+01   8.000000E+01   8.000000E+01   8.000000E+01   8.000000E+01   8.000000E+01   8.000000E+01   8.000000E+01   8.000000E+01   8.000000E+01   8.000000E+01   1.000000E+00   1.000000E+00   1.000000E+00   1.000000E+00   1.000000E+00   8.000000E+01   8.000000E+01   8.000000E+01   8.000000E+01   8.000000E+01   8.000000E+01   8.000000E+01   8.000000E+01   8.000000E+01   8.000000E+01   8.000000E+01   8.000000E+01   8.000000E+01   8.000000E+01   8.000000E+01   8.000000E+01   8.000000E+01   8.000000E+01   8.000000E+01   8.000000E+01   8.000000E+01   8.000000E+01
   8.000000E+01   8.000000E+01   8.000000E+01   8.000000E+01   8.000000E+01   8.000000E+01   8.000000E+01   8.000000E+01   1.000000E+00   1.000000E+00   1.000000E+00   1.000000E+00   1.000000E+00   8.000000E+01   8.000000E+01   8.000000E+01   8.000000E+01   8.000000E+01   8.000000E+01   8.000000E+01   8.000000E+01   8.000000E+01   8.000000E+01   8.000000E+01   1.000000E+00   1.000000E+00   1.000000E+00   1.000000E+00   1.000000E+00   1.000000E+00   1.000000E+00   1.000000E+00   8.000000E+01   8.000000E+01   8.000000E+01   8.000000E+01   8.000000E+01   8.000000E+01   8.000000E+01   8.000000E+01   8.000000E+01   8.000000E+01   8.000000E+01   1.000000E+00   1.000000E+00   1.000000E+00   1.000000E+00   1.000000E+00   1.000000E+00   1.000000E+00   1.000000E+00   8.000000E+01   8.000000E+01   8.000000E+01   8.000000E+01   8.000000E+01   8.000000E+01   8.000000E+01   8.000000E+01   8.000000E+01   8.000000E+01   8.000000E+01   8.000000E+01   8.000000E+01   8.000000E+01   8.000000E+01   8.000000E+01   8.000000E+01   8.000000E+01   8.000000E+01
   8.000000E+01   8.000000E+01   8.000000E+01   8.000000E+01   8.000000E+01   8.000000E+01   8.000000E+01   8.000000E+01   1.000000E+00   1.000000E+00   1.000000E+00   1.000000E+00   1.000000E+00   8.000000E+01   8.000000E+01   8.000000E+01   8.000000E+01   8.000000E+01   8.000000E+01   8.000000E+01   8.000000E+01   8.000000E+01   8.000000E+01   8.000000E+01   1.000000E+00   1.000000E+00   1.000000E+00   1.000000E+00   1.000000E+00   8.000000E+01   8.000000E+01   8.000000E+01   8.000000E+01   8.000000E+01   8.000000E+01   8.000000E+01   8.000000E+01   8.000000E+01   8.000000E+01   8.000000E+01   8.000000E+01   8.000000E+01   8.000000E+01   8.000000E+01   8.000000E+01   8.000000E+01   1.000000E+00   1.000000E+00   1.000000E+00   1.000000E+00   1.000000E+00   8.000000E+01   8.000000E+01   8.000000E+01   8.000000E+01   8.000000E+01   8.000000E+01   8.000000E+01   8.000000E+01   8.000000E+01   8.000000E+01   8.000000E+01   8.000000E+01   8.000000E+01   8.000000E+01   8.000000E+01   8.000000E+01   8.000000E+01   8.000000E+01   8.000000E+01
         0       0.1                           -1 #vka layer 8
        15         1          (70E15.6)        -1 #hk layer 9
   8.000000E+01   8.000000E+01   8.000000E+01   8.000000E+01   8.000000E+01   8.000000E+01   8.000000E+01   8.000000E+01   8.000000E+01   8.000000E+01   8.000000E+01   8.000000E+01   8.000000E+01   8.000000E+01   8.000000E+01   8.000000E+01   8.000000E+01   8.000000E+01   8.000000E+01   8.000000E+01   8.000000E+01   8.000000E+01   8.000000E+01   8.000000E+01   8.000000E+01   8.000000E+01   8.000000E+01   8.000000E+01   8.000000E+01   8.000000E+01   8.000000E+01   8.000000E+01   8.000000E+01   8.000000E+01   8.000000E+01   8.000000E+01   8.000000E+01   8.000000E+01   8.000000E+01   8.000000E+01   8.000000E+01   8.000000E+01   8.000000E+01   1.000000E+00   1.000000E+00   1.000000E+00   1.000000E+00   1.000000E+00   8.000000E+01   8.000000E+01   8.000000E+01   8.000000E+01   8.000000E+01   8.000000E+01   8.000000E+01   8.000000E+01   8.000000E+01   8.000000E+01   8.000000E+01   8.000000E+01   8.000000E+01   8.000000E+01   8.000000E+01   8.000000E+01   8.000000E+01   8.000000E+01   8.000000E+01   8.000000E+01   8.000000E+01   8.000000E+01