# Name file for SEAWAT, generated by Flopy version 3.2.9.
LIST               2  test2.list
DIS               11  test2.dis 
BAS6              13  test2.bas 
LPF               15  test2.lpf 
PCG               27  test2.pcg 
OC                14  test2.oc 
BTN               31  test2.btn 
ADV               32  test2.adv 
DSP               33  test2.dsp 
GCG               35  test2.gcg 
SSM               34  test2.ssm 
VDF               37  test2.vdf 
DATA(BINARY)      53  test2.cbc REPLACE
DATA(BINARY)      51  test2.hds REPLACE
