ptf ~
# LPF package for  SEAWAT, generated by Flopy.
        53    -1E+30         0  
         0         0         0         0         0         0         0         0         0         0         0         0         0         0         0         0         0         0         0         0         0         0         0         0         0         0         0         0         0         0         0         0         0         0         0         0         0         0         0         0
         0         0         0         0         0         0         0         0         0         0         0         0         0         0         0         0         0         0         0         0         0         0         0         0         0         0         0         0         0         0         0         0         0         0         0         0         0         0         0         0
   1.000000E+00   1.000000E+00   1.000000E+00   1.000000E+00   1.000000E+00   1.000000E+00   1.000000E+00   1.000000E+00   1.000000E+00   1.000000E+00   1.000000E+00   1.000000E+00   1.000000E+00   1.000000E+00   1.000000E+00   1.000000E+00   1.000000E+00   1.000000E+00   1.000000E+00   1.000000E+00   1.000000E+00   1.000000E+00   1.000000E+00   1.000000E+00   1.000000E+00   1.000000E+00   1.000000E+00   1.000000E+00   1.000000E+00   1.000000E+00   1.000000E+00   1.000000E+00   1.000000E+00   1.000000E+00   1.000000E+00   1.000000E+00   1.000000E+00   1.000000E+00   1.000000E+00   1.000000E+00
         0         0         0         0         0         0         0         0         0         0         0         0         0         0         0         0         0         0         0         0         0         0         0         0         0         0         0         0         0         0         0         0         0         0         0         0         0         0         0         0
         0         0         0         0         0         0         0         0         0         0         0         0         0         0         0         0         0         0         0         0         0         0         0         0         0         0         0         0         0         0         0         0         0         0         0         0         0         0         0         0
CONSTANT 80.0    #hk Layer 1
         0       0.1                           -1 #vka layer 1
INTERNAL 1.0 (FREE) -1      #hk Layer 2
            80.0            80.0             1.0             1.0             1.0             1.0             1.0            80.0            80.0            80.0
            80.0            80.0            80.0            80.0            80.0            80.0            80.0            80.0            80.0            80.0
            80.0            80.0            80.0             1.0             1.0             1.0             1.0             1.0            80.0            80.0
            80.0            80.0            80.0            80.0            80.0            80.0            80.0            80.0            80.0            80.0
            80.0            80.0            80.0            80.0            80.0            80.0            80.0            80.0            80.0            80.0
            80.0            80.0            80.0            80.0            80.0            80.0            80.0            80.0            80.0            80.0
            80.0            80.0            80.0            80.0            80.0            80.0            80.0            80.0            80.0            80.0
            80.0            80.0            80.0            80.0            80.0            80.0            80.0            80.0            80.0            80.0
            80.0            80.0            80.0            80.0            80.0            80.0            80.0            80.0            80.0            80.0
            80.0            80.0            80.0            80.0            80.0            80.0            80.0            80.0            80.0            80.0
            80.0            80.0            80.0            80.0            80.0            80.0            80.0            80.0            80.0            80.0
            80.0            80.0            80.0            80.0            80.0            80.0            80.0            80.0            80.0            80.0
            80.0            80.0            80.0            80.0            80.0            80.0            80.0            80.0            80.0            80.0
            80.0            80.0            80.0            80.0            80.0            80.0            80.0            80.0            80.0            80.0
            80.0            80.0            80.0            80.0            80.0            80.0            80.0            80.0            80.0            80.0
            80.0            80.0            80.0            80.0            80.0            80.0            80.0            80.0            80.0            80.0
            80.0            80.0            80.0            80.0            80.0            80.0            80.0            80.0            80.0            80.0
            80.0            80.0            80.0            80.0            80.0            80.0            80.0            80.0            80.0            80.0
            80.0            80.0            80.0            80.0            80.0            80.0            80.0            80.0            80.0            80.0
            80.0            80.0            80.0            80.0            80.0            80.0            80.0            80.0            80.0            80.0
            80.0            80.0            80.0            80.0            80.0            80.0            80.0            80.0            80.0            80.0
         0       0.1                           -1 #vka layer 2
CONSTANT ~    hk_2     ~    #hk Layer 3
         0       0.1                           -1 #vka layer 3
INTERNAL 1.0 (FREE) -1      #hk Layer 4
            80.0            80.0            80.0            80.0            80.0            80.0            80.0            80.0            80.0            80.0
            80.0            80.0             1.0             1.0             1.0             1.0             1.0            80.0            80.0            80.0
            80.0            80.0            80.0            80.0            80.0            80.0            80.0            80.0            80.0            80.0
            80.0            80.0            80.0            80.0            80.0             1.0             1.0             1.0             1.0             1.0
            80.0            80.0            80.0            80.0            80.0            80.0            80.0            80.0            80.0            80.0
            80.0            80.0             1.0             1.0             1.0             1.0             1.0             1.0            80.0            80.0
            80.0            80.0            80.0            80.0            80.0            80.0            80.0            80.0            80.0            80.0
            80.0            80.0            80.0            80.0            80.0            80.0            80.0            80.0            80.0            80.0
            80.0            80.0            80.0            80.0            80.0            80.0            80.0            80.0            80.0            80.0
            80.0            80.0            80.0            80.0            80.0            80.0            80.0            80.0            80.0            80.0
            80.0            80.0            80.0            80.0            80.0            80.0            80.0            80.0            80.0            80.0
            80.0            80.0            80.0            80.0            80.0            80.0            80.0            80.0            80.0            80.0
            80.0            80.0            80.0            80.0            80.0            80.0            80.0            80.0            80.0            80.0
            80.0            80.0            80.0            80.0            80.0            80.0            80.0            80.0            80.0            80.0
            80.0            80.0            80.0            80.0            80.0            80.0            80.0            80.0            80.0            80.0
            80.0            80.0            80.0            80.0            80.0            80.0            80.0            80.0            80.0            80.0
            80.0            80.0            80.0            80.0            80.0            80.0            80.0            80.0            80.0            80.0
            80.0            80.0            80.0            80.0            80.0            80.0            80.0            80.0            80.0            80.0
            80.0            80.0            80.0            80.0            80.0            80.0            80.0            80.0            80.0            80.0
            80.0            80.0            80.0            80.0            80.0            80.0            80.0            80.0            80.0            80.0
            80.0            80.0            80.0            80.0            80.0            80.0            80.0            80.0            80.0            80.0
         0       0.1                           -1 #vka layer 4
INTERNAL 1.0 (FREE) -1      #hk Layer 5
            80.0            80.0            80.0            80.0            80.0            80.0            80.0             1.0             1.0             1.0
             1.0             1.0            80.0            80.0            80.0            80.0            80.0            80.0            80.0            80.0
            80.0            80.0            80.0            80.0            80.0            80.0            80.0            80.0            80.0            80.0
            80.0             1.0             1.0             1.0             1.0             1.0             1.0             1.0             1.0             1.0
            80.0             1.0             1.0             1.0             1.0             1.0            80.0            80.0            80.0            80.0
            80.0            80.0             1.0             1.0             1.0             1.0             1.0            80.0            80.0            80.0
            80.0            80.0            80.0            80.0            80.0            80.0            80.0            80.0            80.0            80.0
            80.0            80.0            80.0            80.0            80.0            80.0            80.0            80.0            80.0            80.0
            80.0            80.0            80.0            80.0            80.0            80.0            80.0            80.0            80.0            80.0
            80.0            80.0            80.0            80.0            80.0            80.0            80.0            80.0            80.0            80.0
            80.0            80.0            80.0            80.0            80.0            80.0            80.0            80.0            80.0            80.0
            80.0            80.0            80.0            80.0            80.0            80.0            80.0            80.0            80.0            80.0
            80.0            80.0            80.0            80.0            80.0            80.0            80.0            80.0            80.0            80.0
            80.0            80.0            80.0            80.0            80.0            80.0            80.0            80.0            80.0            80.0
            80.0            80.0            80.0            80.0            80.0            80.0            80.0            80.0            80.0            80.0
            80.0            80.0            80.0            80.0            80.0            80.0            80.0            80.0            80.0            80.0
            80.0            80.0            80.0            80.0            80.0            80.0            80.0            80.0            80.0            80.0
            80.0            80.0            80.0            80.0            80.0            80.0            80.0            80.0            80.0            80.0
            80.0            80.0            80.0            80.0            80.0            80.0            80.0            80.0            80.0            80.0
            80.0            80.0            80.0            80.0            80.0            80.0            80.0            80.0            80.0            80.0
            80.0            80.0            80.0            80.0            80.0            80.0            80.0            80.0            80.0            80.0
         0       0.1                           -1 #vka layer 5
INTERNAL 1.0 (FREE) -1      #hk Layer 6
            80.0            80.0            80.0            80.0             1.0             1.0             1.0             1.0             1.0             1.0
             1.0             1.0            80.0            80.0            80.0            80.0            80.0            80.0            80.0            80.0
            80.0             1.0             1.0             1.0             1.0             1.0            80.0            80.0            80.0            80.0
            80.0             1.0             1.0             1.0             1.0             1.0             1.0             1.0             1.0            80.0
            80.0             1.0             1.0             1.0             1.0             1.0            80.0            80.0            80.0             1.0
             1.0             1.0             1.0             1.0            80.0            80.0            80.0            80.0            80.0            80.0
            80.0            80.0            80.0            80.0            80.0            80.0            80.0            80.0            80.0            80.0
            80.0            80.0            80.0            80.0            80.0            80.0            80.0            80.0            80.0            80.0
            80.0            80.0            80.0            80.0            80.0            80.0            80.0            80.0            80.0            80.0
            80.0            80.0            80.0            80.0            80.0            80.0            80.0            80.0            80.0            80.0
            80.0            80.0            80.0            80.0            80.0            80.0            80.0            80.0            80.0            80.0
            80.0            80.0            80.0            80.0            80.0            80.0            80.0            80.0            80.0            80.0
            80.0            80.0            80.0            80.0            80.0            80.0            80.0            80.0            80.0            80.0
            80.0            80.0            80.0            80.0            80.0            80.0            80.0            80.0            80.0            80.0
            80.0            80.0            80.0            80.0            80.0            80.0            80.0            80.0            80.0            80.0
            80.0            80.0            80.0            80.0            80.0            80.0            80.0            80.0            80.0            80.0
            80.0            80.0            80.0            80.0            80.0            80.0            80.0            80.0            80.0            80.0
            80.0            80.0            80.0            80.0            80.0            80.0            80.0            80.0            80.0            80.0
            80.0            80.0            80.0            80.0            80.0            80.0            80.0            80.0            80.0            80.0
            80.0            80.0            80.0            80.0            80.0            80.0            80.0            80.0            80.0            80.0
            80.0            80.0            80.0            80.0            80.0            80.0            80.0            80.0            80.0            80.0
         0       0.1                           -1 #vka layer 6
INTERNAL 1.0 (FREE) -1      #hk Layer 7
            80.0            80.0            80.0            80.0             1.0             1.0             1.0             1.0             1.0            80.0
            80.0            80.0            80.0            80.0            80.0            80.0            80.0            80.0            80.0            80.0
            80.0             1.0             1.0             1.0             1.0             1.0            80.0            80.0            80.0            80.0
            80.0            80.0            80.0            80.0             1.0             1.0             1.0             1.0             1.0            80.0
            80.0            80.0            80.0            80.0            80.0            80.0             1.0             1.0             1.0             1.0
             1.0             1.0             1.0             1.0            80.0            80.0            80.0            80.0            80.0            80.0
            80.0            80.0            80.0            80.0            80.0            80.0            80.0            80.0            80.0            80.0
            80.0            80.0            80.0            80.0            80.0            80.0            80.0            80.0            80.0            80.0
            80.0            80.0            80.0            80.0            80.0            80.0            80.0            80.0            80.0            80.0
            80.0            80.0            80.0            80.0            80.0            80.0            80.0            80.0            80.0            80.0
            80.0            80.0            80.0            80.0            80.0            80.0            80.0            80.0            80.0            80.0
            80.0            80.0            80.0            80.0            80.0            80.0            80.0            80.0            80.0            80.0
            80.0            80.0            80.0            80.0            80.0            80.0            80.0            80.0            80.0            80.0
            80.0            80.0            80.0            80.0            80.0            80.0            80.0            80.0            80.0            80.0
            80.0            80.0            80.0            80.0            80.0            80.0            80.0            80.0            80.0            80.0
            80.0            80.0            80.0            80.0            80.0            80.0            80.0            80.0            80.0            80.0
            80.0            80.0            80.0            80.0            80.0            80.0            80.0            80.0            80.0            80.0
            80.0            80.0            80.0            80.0            80.0            80.0            80.0            80.0            80.0            80.0
            80.0            80.0            80.0            80.0            80.0            80.0            80.0            80.0            80.0            80.0
            80.0            80.0            80.0            80.0            80.0            80.0            80.0            80.0            80.0            80.0
            80.0            80.0            80.0            80.0            80.0            80.0            80.0            80.0            80.0            80.0
         0       0.1                           -1 #vka layer 7
INTERNAL 1.0 (FREE) -1      #hk Layer 8
            80.0            80.0            80.0            80.0            80.0            80.0            80.0            80.0            80.0            80.0
            80.0            80.0            80.0            80.0            80.0            80.0            80.0            80.0            80.0            80.0
            80.0            80.0            80.0            80.0            80.0            80.0            80.0            80.0            80.0            80.0
            80.0            80.0            80.0            80.0            80.0            80.0            80.0            80.0            80.0            80.0
            80.0            80.0            80.0            80.0            80.0            80.0             1.0             1.0             1.0             1.0
             1.0            80.0            80.0            80.0            80.0            80.0            80.0            80.0             1.0             1.0
             1.0             1.0             1.0            80.0            80.0            80.0            80.0            80.0            80.0            80.0
            80.0            80.0            80.0            80.0            80.0            80.0            80.0            80.0            80.0            80.0
            80.0            80.0            80.0            80.0            80.0            80.0            80.0            80.0            80.0            80.0
            80.0            80.0            80.0            80.0            80.0            80.0            80.0            80.0            80.0            80.0
            80.0            80.0            80.0            80.0            80.0            80.0            80.0            80.0            80.0            80.0
            80.0            80.0            80.0            80.0            80.0            80.0            80.0            80.0            80.0            80.0
            80.0            80.0            80.0            80.0            80.0            80.0            80.0            80.0            80.0            80.0
            80.0            80.0            80.0            80.0            80.0            80.0            80.0            80.0            80.0            80.0
            80.0            80.0            80.0            80.0            80.0            80.0            80.0            80.0            80.0            80.0
            80.0            80.0            80.0            80.0            80.0            80.0            80.0            80.0            80.0            80.0
            80.0            80.0            80.0            80.0            80.0            80.0            80.0            80.0            80.0            80.0
            80.0            80.0            80.0            80.0            80.0            80.0            80.0            80.0            80.0            80.0
            80.0            80.0            80.0            80.0            80.0            80.0            80.0            80.0            80.0            80.0
            80.0            80.0            80.0            80.0            80.0            80.0            80.0            80.0            80.0            80.0
            80.0            80.0            80.0            80.0            80.0            80.0            80.0            80.0            80.0            80.0
         0       0.1                           -1 #vka layer 8
INTERNAL 1.0 (FREE) -1      #hk Layer 9
            80.0            80.0            80.0            80.0            80.0            80.0            80.0            80.0            80.0            80.0
            80.0            80.0            80.0            80.0            80.0            80.0            80.0            80.0            80.0            80.0
            80.0            80.0            80.0             1.0             1.0             1.0             1.0             1.0            80.0            80.0
            80.0            80.0            80.0            80.0            80.0            80.0            80.0            80.0            80.0            80.0
            80.0            80.0            80.0            80.0            80.0            80.0            80.0            80.0            80.0            80.0
            80.0            80.0            80.0            80.0            80.0            80.0            80.0            80.0             1.0             1.0
             1.0             1.0             1.0            80.0            80.0            80.0            80.0            80.0            80.0            80.0
            80.0            80.0            80.0            80.0            80.0            80.0            80.0            80.0            80.0            80.0
            80.0            80.0            80.0            80.0            80.0            80.0            80.0            80.0            80.0            80.0
            80.0            80.0            80.0            80.0            80.0            80.0            80.0            80.0            80.0            80.0
            80.0            80.0            80.0            80.0            80.0            80.0            80.0            80.0            80.0            80.0
            80.0            80.0            80.0            80.0            80.0            80.0            80.0            80.0            80.0            80.0
            80.0            80.0            80.0            80.0            80.0            80.0            80.0            80.0            80.0            80.0
            80.0            80.0            80.0            80.0            80.0            80.0            80.0            80.0            80.0            80.0
            80.0            80.0            80.0            80.0            80.0            80.0            80.0            80.0            80.0            80.0
            80.0            80.0            80.0            80.0            80.0            80.0            80.0            80.0            80.0            80.0
            80.0            80.0            80.0            80.0            80.0            80.0            80.0            80.0            80.0            80.0
            80.0            80.0            80.0            80.0            80.0            80.0            80.0            80.0            80.0            80.0
            80.0            80.0            80.0            80.0            80.0            80.0            80.0            80.0            80.0            80.0
            80.0            80.0            80.0            80.0            80.0            80.0            80.0            80.0            80.0            80.0
            80.0            80.0            80.0            80.0            80.0            80.0            80.0            80.0            80.0            80.0
         0       0.1                           -1 #vka layer 9
INTERNAL 1.0 (FREE) -1      #hk Layer 10
            80.0            80.0             1.0             1.0             1.0             1.0             1.0            80.0            80.0            80.0
            80.0            80.0            80.0            80.0            80.0            80.0            80.0            80.0             1.0             1.0
             1.0             1.0             1.0             1.0             1.0             1.0             1.0             1.0             1.0             1.0
            80.0            80.0            80.0            80.0            80.0            80.0            80.0            80.0            80.0            80.0
            80.0            80.0            80.0            80.0            80.0            80.0            80.0            80.0             1.0             1.0
             1.0             1.0             1.0            80.0            80.0            80.0            80.0            80.0            80.0            80.0
            80.0            80.0            80.0            80.0            80.0            80.0            80.0            80.0            80.0            80.0
            80.0            80.0            80.0            80.0            80.0            80.0            80.0            80.0            80.0            80.0
            80.0            80.0            80.0            80.0            80.0            80.0            80.0            80.0            80.0            80.0
            80.0            80.0            80.0            80.0            80.0            80.0            80.0            80.0            80.0            80.0
            80.0            80.0            80.0            80.0            80.0            80.0            80.0            80.0            80.0            80.0
            80.0            80.0            80.0            80.0            80.0            80.0            80.0            80.0            80.0            80.0
            80.0            80.0            80.0            80.0            80.0            80.0            80.0            80.0            80.0            80.0
            80.0            80.0            80.0            80.0            80.0            80.0            80.0            80.0            80.0            80.0
            80.0            80.0            80.0            80.0            80.0            80.0            80.0            80.0            80.0            80.0
            80.0            80.0            80.0            80.0            80.0            80.0            80.0            80.0            80.0            80.0
            80.0            80.0            80.0            80.0            80.0            80.0            80.0            80.0            80.0            80.0
            80.0            80.0            80.0            80.0            80.0            80.0            80.0            80.0            80.0            80.0
            80.0            80.0            80.0            80.0            80.0            80.0            80.0            80.0            80.0            80.0