# CHD package for  SEAWAT, generated by Flopy.
       120
       120         0 # stress period 1
         1         1        31   2.0000000E+01   2.0000000E+01
         1         1        32   2.0000000E+01   2.0000000E+01
         1         1        33   2.0000000E+01   2.0000000E+01
         1         1        34   2.0000000E+01   2.0000000E+01
         1         1        35   2.0000000E+01   2.0000000E+01
         1         1        36   2.0000000E+01   2.0000000E+01
         1         1        37   2.0000000E+01   2.0000000E+01
         1         1        38   2.0000000E+01   2.0000000E+01
         1         1        39   2.0000000E+01   2.0000000E+01
         1         1        40   2.0000000E+01   2.0000000E+01
         1         1        41   2.0000000E+01   2.0000000E+01
         1         1        42   2.0000000E+01   2.0000000E+01
         1         1        43   2.0000000E+01   2.0000000E+01
         1         1        44   2.0000000E+01   2.0000000E+01
         1         1        45   2.0000000E+01   2.0000000E+01
         1         1        46   2.0000000E+01   2.0000000E+01
         1         1        47   2.0000000E+01   2.0000000E+01
         1         1        48   2.0000000E+01   2.0000000E+01
         1         1        49   2.0000000E+01   2.0000000E+01
         1         1        50   2.0000000E+01   2.0000000E+01
         1         1        51   2.0000000E+01   2.0000000E+01
         1         1        52   2.0000000E+01   2.0000000E+01
         1         1        53   2.0000000E+01   2.0000000E+01
         1         1        54   2.0000000E+01   2.0000000E+01
         1         1        55   2.0000000E+01   2.0000000E+01
         1         1        56   2.0000000E+01   2.0000000E+01
         1         1        57   2.0000000E+01   2.0000000E+01
         1         1        58   2.0000000E+01   2.0000000E+01
         1         1        59   2.0000000E+01   2.0000000E+01
         1         1        60   2.0000000E+01   2.0000000E+01
         1         1        61   2.0000000E+01   2.0000000E+01
         1         1        62   2.0000000E+01   2.0000000E+01
         1         1        63   2.0000000E+01   2.0000000E+01
         1         1        64   2.0000000E+01   2.0000000E+01
         1         1        65   2.0000000E+01   2.0000000E+01
         1         1        66   2.0000000E+01   2.0000000E+01
         1         1        67   2.0000000E+01   2.0000000E+01
         1         1        68   2.0000000E+01   2.0000000E+01
         1         1        69   2.0000000E+01   2.0000000E+01
         1         1        70   2.0000000E+01   2.0000000E+01
         1         2        31   2.0000000E+01   2.0000000E+01
         1         2        32   2.0000000E+01   2.0000000E+01
         1         2        33   2.0000000E+01   2.0000000E+01
         1         2        34   2.0000000E+01   2.0000000E+01
         1         2        35   2.0000000E+01   2.0000000E+01
         1         2        36   2.0000000E+01   2.0000000E+01
         1         2        37   2.0000000E+01   2.0000000E+01
         1         2        38   2.0000000E+01   2.0000000E+01
         1         2        39   2.0000000E+01   2.0000000E+01
         1         2        40   2.0000000E+01   2.0000000E+01
         1         2        41   2.0000000E+01   2.0000000E+01
         1         2        42   2.0000000E+01   2.0000000E+01
         1         2        43   2.0000000E+01   2.0000000E+01
         1         2        44   2.0000000E+01   2.0000000E+01
         1         2        45   2.0000000E+01   2.0000000E+01
         1         2        46   2.0000000E+01   2.0000000E+01
         1         2        47   2.0000000E+01   2.0000000E+01
         1         2        48   2.0000000E+01   2.0000000E+01
         1         2        49   2.0000000E+01   2.0000000E+01
         1         2        50   2.0000000E+01   2.0000000E+01
         1         2        51   2.0000000E+01   2.0000000E+01
         1         2        52   2.0000000E+01   2.0000000E+01
         1         2        53   2.0000000E+01   2.0000000E+01
         1         2        54   2.0000000E+01   2.0000000E+01
         1         2        55   2.0000000E+01   2.0000000E+01
         1         2        56   2.0000000E+01   2.0000000E+01
         1         2        57   2.0000000E+01   2.0000000E+01
         1         2        58   2.0000000E+01   2.0000000E+01
         1         2        59   2.0000000E+01   2.0000000E+01
         1         2        60   2.0000000E+01   2.0000000E+01
         1         2        61   2.0000000E+01   2.0000000E+01
         1         2        62   2.0000000E+01   2.0000000E+01
         1         2        63   2.0000000E+01   2.0000000E+01
         1         2        64   2.0000000E+01   2.0000000E+01
         1         2        65   2.0000000E+01   2.0000000E+01
         1         2        66   2.0000000E+01   2.0000000E+01
         1         2        67   2.0000000E+01   2.0000000E+01
         1         2        68   2.0000000E+01   2.0000000E+01
         1         2        69   2.0000000E+01   2.0000000E+01
         1         2        70   2.0000000E+01   2.0000000E+01
         1         3        31   2.0000000E+01   2.0000000E+01
         1         3        32   2.0000000E+01   2.0000000E+01
         1         3        33   2.0000000E+01   2.0000000E+01
         1         3        34   2.0000000E+01   2.0000000E+01
         1         3        35   2.0000000E+01   2.0000000E+01
         1         3        36   2.0000000E+01   2.0000000E+01
         1         3        37   2.0000000E+01   2.0000000E+01
         1         3        38   2.0000000E+01   2.0000000E+01
         1         3        39   2.0000000E+01   2.0000000E+01
         1         3        40   2.0000000E+01   2.0000000E+01
         1         3        41   2.0000000E+01   2.0000000E+01
         1         3        42   2.0000000E+01   2.0000000E+01
         1         3        43   2.0000000E+01   2.0000000E+01
         1         3        44   2.0000000E+01   2.0000000E+01
         1         3        45   2.0000000E+01   2.0000000E+01
         1         3        46   2.0000000E+01   2.0000000E+01
         1         3        47   2.0000000E+01   2.0000000E+01
         1         3        48   2.0000000E+01   2.0000000E+01
         1         3        49   2.0000000E+01   2.0000000E+01
         1         3        50   2.0000000E+01   2.0000000E+01
         1         3        51   2.0000000E+01   2.0000000E+01
         1         3        52   2.0000000E+01   2.0000000E+01
         1         3        53   2.0000000E+01   2.0000000E+01
         1         3        54   2.0000000E+01   2.0000000E+01
         1         3        55   2.0000000E+01   2.0000000E+01
         1         3        56   2.0000000E+01   2.0000000E+01
         1         3        57   2.0000000E+01   2.0000000E+01
         1         3        58   2.0000000E+01   2.0000000E+01
         1         3        59   2.0000000E+01   2.0000000E+01
         1         3        60   2.0000000E+01   2.0000000E+01
         1         3        61   2.0000000E+01   2.0000000E+01
         1         3        62   2.0000000E+01   2.0000000E+01
         1         3        63   2.0000000E+01   2.0000000E+01
         1         3        64   2.0000000E+01   2.0000000E+01
         1         3        65   2.0000000E+01   2.0000000E+01
         1         3        66   2.0000000E+01   2.0000000E+01
         1         3        67   2.0000000E+01   2.0000000E+01
         1         3        68   2.0000000E+01   2.0000000E+01
         1         3        69   2.0000000E+01   2.0000000E+01
         1         3        70   2.0000000E+01   2.0000000E+01
       120         0 # stress period 2
         1         1        31   1.9500000E+01   1.9500000E+01
         1         1        32   1.9500000E+01   1.9500000E+01
         1         1        33   1.9500000E+01   1.9500000E+01
         1         1        34   1.9500000E+01   1.9500000E+01
         1         1        35   1.9500000E+01   1.9500000E+01
         1         1        36   1.9500000E+01   1.9500000E+01
         1         1        37   1.9500000E+01   1.9500000E+01
         1         1        38   1.9500000E+01   1.9500000E+01
         1         1        39   1.9500000E+01   1.9500000E+01
         1         1        40   1.9500000E+01   1.9500000E+01
         1         1        41   1.9500000E+01   1.9500000E+01
         1         1        42   1.9500000E+01   1.9500000E+01
         1         1        43   1.9500000E+01   1.9500000E+01
         1         1        44   1.9500000E+01   1.9500000E+01
         1         1        45   1.9500000E+01   1.9500000E+01
         1         1        46   1.9500000E+01   1.9500000E+01
         1         1        47   1.9500000E+01   1.9500000E+01
         1         1        48   1.9500000E+01   1.9500000E+01
         1         1        49   1.9500000E+01   1.9500000E+01
         1         1        50   1.9500000E+01   1.9500000E+01
         1         1        51   1.9500000E+01   1.9500000E+01
         1         1        52   1.9500000E+01   1.9500000E+01
         1         1        53   1.9500000E+01   1.9500000E+01
         1         1        54   1.9500000E+01   1.9500000E+01
         1         1        55   1.9500000E+01   1.9500000E+01
         1         1        56   1.9500000E+01   1.9500000E+01
         1         1        57   1.9500000E+01   1.9500000E+01
         1         1        58   1.9500000E+01   1.9500000E+01
         1         1        59   1.9500000E+01   1.9500000E+01
         1         1        60   1.9500000E+01   1.9500000E+01
         1         1        61   1.9500000E+01   1.9500000E+01
         1         1        62   1.9500000E+01   1.9500000E+01
         1         1        63   1.9500000E+01   1.9500000E+01
         1         1        64   1.9500000E+01   1.9500000E+01
         1         1        65   1.9500000E+01   1.9500000E+01
         1         1        66   1.9500000E+01   1.9500000E+01
         1         1        67   1.9500000E+01   1.9500000E+01
         1         1        68   1.9500000E+01   1.9500000E+01
         1         1        69   1.9500000E+01   1.9500000E+01
         1         1        70   1.9500000E+01   1.9500000E+01
         1         2        31   1.9500000E+01   1.9500000E+01
         1         2        32   1.9500000E+01   1.9500000E+01
         1         2        33   1.9500000E+01   1.9500000E+01
         1         2        34   1.9500000E+01   1.9500000E+01
         1         2        35   1.9500000E+01   1.9500000E+01
         1         2        36   1.9500000E+01   1.9500000E+01
         1         2        37   1.9500000E+01   1.9500000E+01
         1         2        38   1.9500000E+01   1.9500000E+01
         1         2        39   1.9500000E+01   1.9500000E+01
         1         2        40   1.9500000E+01   1.9500000E+01
         1         2        41   1.9500000E+01   1.9500000E+01
         1         2        42   1.9500000E+01   1.9500000E+01
         1         2        43   1.9500000E+01   1.9500000E+01
         1         2        44   1.9500000E+01   1.9500000E+01
         1         2        45   1.9500000E+01   1.9500000E+01
         1         2        46   1.9500000E+01   1.9500000E+01
         1         2        47   1.9500000E+01   1.9500000E+01
         1         2        48   1.9500000E+01   1.9500000E+01
         1         2        49   1.9500000E+01   1.9500000E+01
         1         2        50   1.9500000E+01   1.9500000E+01
         1         2        51   1.9500000E+01   1.9500000E+01
         1         2        52   1.9500000E+01   1.9500000E+01
         1         2        53   1.9500000E+01   1.9500000E+01
         1         2        54   1.9500000E+01   1.9500000E+01
         1         2        55   1.9500000E+01   1.9500000E+01
         1         2        56   1.9500000E+01   1.9500000E+01
         1         2        57   1.9500000E+01   1.9500000E+01
         1         2        58   1.9500000E+01   1.9500000E+01
         1         2        59   1.9500000E+01   1.9500000E+01
         1         2        60   1.9500000E+01   1.9500000E+01
         1         2        61   1.9500000E+01   1.9500000E+01
         1         2        62   1.9500000E+01   1.9500000E+01
         1         2        63   1.9500000E+01   1.9500000E+01
         1         2        64   1.9500000E+01   1.9500000E+01
         1         2        65   1.9500000E+01   1.9500000E+01
         1         2        66   1.9500000E+01   1.9500000E+01
         1         2        67   1.9500000E+01   1.9500000E+01
         1         2        68   1.9500000E+01   1.9500000E+01
         1         2        69   1.9500000E+01   1.9500000E+01
         1         2        70   1.9500000E+01   1.9500000E+01
         1         3        31   1.9500000E+01   1.9500000E+01
         1         3        32   1.9500000E+01   1.9500000E+01
         1         3        33   1.9500000E+01   1.9500000E+01
         1         3        34   1.9500000E+01   1.9500000E+01
         1         3        35   1.9500000E+01   1.9500000E+01
         1         3        36   1.9500000E+01   1.9500000E+01
         1         3        37   1.9500000E+01   1.9500000E+01
         1         3        38   1.9500000E+01   1.9500000E+01
         1         3        39   1.9500000E+01   1.9500000E+01
         1         3        40   1.9500000E+01   1.9500000E+01
         1         3        41   1.9500000E+01   1.9500000E+01
         1         3        42   1.9500000E+01   1.9500000E+01
         1         3        43   1.9500000E+01   1.9500000E+01
         1         3        44   1.9500000E+01   1.9500000E+01
         1         3        45   1.9500000E+01   1.9500000E+01
         1         3        46   1.9500000E+01   1.9500000E+01
         1         3        47   1.9500000E+01   1.9500000E+01
         1         3        48   1.9500000E+01   1.9500000E+01
         1         3        49   1.9500000E+01   1.9500000E+01
         1         3        50   1.9500000E+01   1.9500000E+01
         1         3        51   1.9500000E+01   1.9500000E+01
         1         3        52   1.9500000E+01   1.9500000E+01
         1         3        53   1.9500000E+01   1.9500000E+01
         1         3        54   1.9500000E+01   1.9500000E+01
         1         3        55   1.9500000E+01   1.9500000E+01
         1         3        56   1.9500000E+01   1.9500000E+01
         1         3        57   1.9500000E+01   1.9500000E+01
         1         3        58   1.9500000E+01   1.9500000E+01
         1         3        59   1.9500000E+01   1.9500000E+01
         1         3        60   1.9500000E+01   1.9500000E+01
         1         3        61   1.9500000E+01   1.9500000E+01
         1         3        62   1.9500000E+01   1.9500000E+01
         1         3        63   1.9500000E+01   1.9500000E+01
         1         3        64   1.9500000E+01   1.9500000E+01
         1         3        65   1.9500000E+01   1.9500000E+01
         1         3        66   1.9500000E+01   1.9500000E+01
         1         3        67   1.9500000E+01   1.9500000E+01
         1         3        68   1.9500000E+01   1.9500000E+01
         1         3        69   1.9500000E+01   1.9500000E+01
         1         3        70   1.9500000E+01   1.9500000E+01
