pcf
* control data
restart estimation
1 120 1 0 1
1 1 double point
10.000000 -3.000000 0.300000 0.030000 10
10.0  10.0  0.001
0.1
30  0.005  4  4  0.005  4  1E-5
1  1  1
* parameter groups
hk relative 0.01 0.0 switch 2.0 parabolic
* parameter data
hk_2 log factor 72.589050 1.000000e-03 1.000000e+03 hk 1.000000 0.000000 1
* observation groups
heads
* observation data
flux_0 0.012454 10.000000 heads
flux_1 0.012426 10.000000 heads
flux_2 0.012373 10.000000 heads
flux_3 0.012298 10.000000 heads
flux_4 0.012206 10.000000 heads
flux_5 0.012099 10.000000 heads
flux_6 0.011982 10.000000 heads
flux_7 0.011858 10.000000 heads
flux_8 0.011729 10.000000 heads
flux_9 0.011598 10.000000 heads
flux_10 0.011466 10.000000 heads
flux_11 0.011336 10.000000 heads
flux_12 0.011209 10.000000 heads
flux_13 0.011085 10.000000 heads
flux_14 0.010965 10.000000 heads
flux_15 0.010851 10.000000 heads
flux_16 0.010741 10.000000 heads
flux_17 0.010638 10.000000 heads
flux_18 0.010540 10.000000 heads
flux_19 0.010448 10.000000 heads
flux_20 0.010362 10.000000 heads
flux_21 0.010282 10.000000 heads
flux_22 0.010208 10.000000 heads
flux_23 0.010139 10.000000 heads
flux_24 0.010076 10.000000 heads
flux_25 0.010017 10.000000 heads
flux_26 0.009963 10.000000 heads
flux_27 0.009912 10.000000 heads
flux_28 0.009865 10.000000 heads
flux_29 0.009820 10.000000 heads
flux_30 0.009781 10.000000 heads
flux_31 0.009749 10.000000 heads
flux_32 0.009725 10.000000 heads
flux_33 0.009707 10.000000 heads
flux_34 0.009694 10.000000 heads
flux_35 0.009684 10.000000 heads
flux_36 0.009676 10.000000 heads
flux_37 0.009670 10.000000 heads
flux_38 0.009666 10.000000 heads
flux_39 0.009664 10.000000 heads
flux_40 0.012513 10.000000 heads
flux_41 0.012479 10.000000 heads
flux_42 0.012417 10.000000 heads
flux_43 0.012334 10.000000 heads
flux_44 0.012234 10.000000 heads
flux_45 0.012121 10.000000 heads
flux_46 0.011999 10.000000 heads
flux_47 0.011871 10.000000 heads
flux_48 0.011739 10.000000 heads
flux_49 0.011606 10.000000 heads
flux_50 0.011472 10.000000 heads
flux_51 0.011341 10.000000 heads
flux_52 0.011212 10.000000 heads
flux_53 0.011088 10.000000 heads
flux_54 0.010967 10.000000 heads
flux_55 0.010852 10.000000 heads
flux_56 0.010743 10.000000 heads
flux_57 0.010639 10.000000 heads
flux_58 0.010541 10.000000 heads
flux_59 0.010449 10.000000 heads
flux_60 0.010363 10.000000 heads
flux_61 0.010283 10.000000 heads
flux_62 0.010209 10.000000 heads
flux_63 0.010140 10.000000 heads
flux_64 0.010077 10.000000 heads
flux_65 0.010019 10.000000 heads
flux_66 0.009966 10.000000 heads
flux_67 0.009917 10.000000 heads
flux_68 0.009873 10.000000 heads
flux_69 0.009834 10.000000 heads
flux_70 0.009799 10.000000 heads
flux_71 0.009770 10.000000 heads
flux_72 0.009745 10.000000 heads
flux_73 0.009724 10.000000 heads
flux_74 0.009708 10.000000 heads
flux_75 0.009694 10.000000 heads
flux_76 0.009684 10.000000 heads
flux_77 0.009677 10.000000 heads
flux_78 0.009672 10.000000 heads
flux_79 0.009670 10.000000 heads
flux_80 0.012545 10.000000 heads
flux_81 0.012510 10.000000 heads
flux_82 0.012446 10.000000 heads
flux_83 0.012359 10.000000 heads
flux_84 0.012255 10.000000 heads
flux_85 0.012139 10.000000 heads
flux_86 0.012013 10.000000 heads
flux_87 0.011882 10.000000 heads
flux_88 0.011748 10.000000 heads
flux_89 0.011613 10.000000 heads
flux_90 0.011478 10.000000 heads
flux_91 0.011345 10.000000 heads
flux_92 0.011216 10.000000 heads
flux_93 0.011090 10.000000 heads
flux_94 0.010969 10.000000 heads
flux_95 0.010854 10.000000 heads
flux_96 0.010744 10.000000 heads
flux_97 0.010640 10.000000 heads
flux_98 0.010541 10.000000 heads
flux_99 0.010449 10.000000 heads
flux_100 0.010363 10.000000 heads
flux_101 0.010283 10.000000 heads
flux_102 0.010209 10.000000 heads
flux_103 0.010141 10.000000 heads
flux_104 0.010078 10.000000 heads
flux_105 0.010020 10.000000 heads
flux_106 0.009967 10.000000 heads
flux_107 0.009920 10.000000 heads
flux_108 0.009878 10.000000 heads
flux_109 0.009839 10.000000 heads
flux_110 0.009806 10.000000 heads
flux_111 0.009777 10.000000 heads
flux_112 0.009753 10.000000 heads
flux_113 0.009732 10.000000 heads
flux_114 0.009715 10.000000 heads
flux_115 0.009701 10.000000 heads
flux_116 0.009690 10.000000 heads
flux_117 0.009683 10.000000 heads
flux_118 0.009678 10.000000 heads
flux_119 0.009675 10.000000 heads
* model command line
SGD_runmodel.bat
* model input/output
E:/Projects/DelawareSGD/work/newtest\newtest.lpf.tpl E:/Projects/DelawareSGD/work/newtest\newtest.lpf
E:/Projects/DelawareSGD/work/newtest\flux.ins E:/Projects/DelawareSGD/work/newtest\flux.smp
